<?xml version="1.0"?> <additional> <crossing id="cross30965809" edges="205182378#8 -205182378#11" priority="true"/> </additional>
