<?xml version="1.0"?> <additional> <vType id="pedestrian" vClass="pedestrian" speed="1.2"/> </additional>
