<?xml version='1.0' encoding='utf-8'?>
<routes><vType id="bus" vClass="bus" color="green" />
	<flow id="N19_frequency1" type="bus" begin="900" end="1800" period="900">
		<route edges="29238015 29238044 80369244 80369263 29238181 29238182 29238183#0 29238184#0 51856492#0 29027839#0 29027839#2 31343367#0 29048562#0 145069303#0 145069303#1 145069303#2 145069303#4 -26973015 24983010#0 24983010#1 161678033#0 51857519#0 161678034#0 161678034#1 161678034#2 161678034#2.30 161678034#2.46 24970784#0 24977473#0 54154922#0 54154922#1 26071515#0 26071515#1 4324820 26471940#0 -164051438#2 -164051438#1 -164051438#0 -164051438#0.46 -164051438#0.62 -26471933 140834262#0 201953161#0 201953161#7 -115881043#10 -115881043#8 -115881043#7 -115881043#6 -115881043#5 -115881043#4 -115881043#2 -115881043#0 201953160#0 201953160#3 542630099 354967545#0.45 354967545#1 141058765#0 141058765#1 141058765#2 141058765#2.33 31624236#0 172700927#0 -48742425#2 -48742425#1 -48742425#0 23184252#0 23184252#1 201926265#0 201926265#1 201926265#2 201926265#3 201926265#4 201926265#5 -20314044#2 -20314044#1 -20314044#0 -57827563#3 -57827563#2 -57827563#1 -57827563#0 20266195#0 20266195#2 20266195#4 -439871826 -22486112#6 -22486112#5 -22486112#4 -22486112#3 -22486112#2 -22486112#1 -390842191#1 -201286890#12 -201286890#10 -201286890#9 -201286890#8 -201286890#7 -201286890#6 -201286890#5 23206120 203976003#11" />
	        <stop busStop="331" duration="7.00" />
	        <stop busStop="200" duration="7.00" />
	        <stop busStop="269" duration="7.00" />
	        <stop busStop="94" duration="7.00" />
	        <stop busStop="223" duration="7.00" />
	        <stop busStop="390" duration="7.00" />
	        <stop busStop="137" duration="7.00" />
	        <stop busStop="139" duration="7.00" />
	        <stop busStop="105" duration="7.00" />
	        <stop busStop="196" duration="7.00" />
	        <stop busStop="99" duration="7.00" />
	        <stop busStop="141" duration="7.00" />
	        <stop busStop="325" duration="7.00" />
	</flow>
	<flow id="S1R" type="bus" begin="18180" end="48440" period="30300">
		<route edges="-233673422#10 -233673422#8 -233673422#6 -233673422#4 -233673422#3 -233673422#1 233673418 51872703 28124854#0 28124854#1 51872706 51872706.54 32881184 51872702 201286890#0 201286890#1 201286890#2 201286890#3 201286890#4 201286890#6 201286890#7 201286890#8 201286890#9 201286890#10 201286890#11 390842191#0 22486112#0 22486112#2 22486112#3 22486112#4 22486112#5 22486112#6 439871826 -20266195#4 -20266195#3 -20266195#1 57827563#0 57827563#1 57827563#2 57827563#3 20314044#0 20314044#1 20314044#2 -201926265#6 -201926265#4 -201926265#3 -201926265#2 -201926265#1 -201926265#0 -23184252#1 -23184252#0 48742425#0 48742425#1 48742425#2 32881076#0 37282369 354967544#0 354967544#1 354967544#2 4268816#0 4268816#1 -201953160#4 -201953160#1 -140834255#1 -140834262#1 -26471939#1 -26471938 26471932#0 164051398 203971379#0 203971379#1 -54154922#1 -54154922#0 -42745461#1 -42745461#0 -42745460 -28132014#2 -28132014#0 -116765457#1 -116765457#0 -137463475#1 137463477#0 25902677#0 137463478#0 137463478#1 137463478#2 137463478#3 29238188#0 29238188#1 29238188#3 152077572#0 152077572#2 152077572#2.79 54858974 4942408 54858973#0 54858973#0.62 54858973#1 54858973#2 29119849#0 29119849#1 29119850 29119850.70 30399662#0 30399662#1 54169280#0 54169280#1 54169280#2 54169280#3 54169280#4 54169280#6 386687232#0 -315358251#1 -315358251#0 -315358242#2 -315358242#1 -315358242#0 -129379925 -129379918#1 -315358252#1 -129379922 -315358246 -129379920#1 -129379920#0 -129379921#1 -129379921#0 -315358250#1 -315358250#0 -379897806 -164078530 -315358244 -129379923 -315358243 -164078531#2 -164078531#1 -164078531#0 -164078531#0.84 -156788416#1 10425743 220012723" />
	        <stop busStop="92" duration="7.00" />
	        <stop busStop="192" duration="7.00" />
	        <stop busStop="193" duration="7.00" />
	        <stop busStop="195" duration="7.00" />
	        <stop busStop="108" duration="7.00" />
	        <stop busStop="197" duration="7.00" />
	        <stop busStop="126" duration="7.00" />
	        <stop busStop="95" duration="7.00" />
	        <stop busStop="240" duration="7.00" />
	        <stop busStop="224" duration="7.00" />
	        <stop busStop="282" duration="7.00" />
	        <stop busStop="235" duration="7.00" />
	        <stop busStop="226" duration="7.00" />
	        <stop busStop="24" duration="7.00" />
	        <stop busStop="25" duration="7.00" />
	        <stop busStop="290" duration="7.00" />
	        <stop busStop="22" duration="7.00" />
	        <stop busStop="322" duration="7.00" />
	</flow>
	<flow id="51R" type="bus" begin="19680" end="71880" period="1800">
		<route edges="42444460#4 203971377#0 39704293#0 39704293#0.384 39704293#0.414 -201956816#6 -201956816#5 -201956816#4 -201956816#3 -201956816#2 -201956816#0 -201953163#2 -115881043#10 -115881043#8 -115881043#7 -115881043#6 -115881043#5 -115881043#4 -115881043#2 -115881043#0 201953160#0 201953160#3 201956818#1 201956818#2 201956818#5 164051398 203971379#0 203971379#1 -54154922#1 -54154922#0 -24977473#2 -24970784#3 -161678034#2 -161678034#2.33 -161678034#2.50 -161678034#1 -161678034#0 28119593 -24983010#2 -24983010#0 26973015 -145069303#4 -145069303#3 -145069303#1 -145069303#0 -32009683#1 -31343367#1 -29027839#2 -29027839#1 -51856492#2 -29238184#1 -145069300#1 -145069300#1.112 51856495#0 29238013 29238015" />
		<stop busStop="120" duration="7.00" />
        	<stop busStop="112" duration="7.00" />
        	<stop busStop="68" duration="7.00" />
        	<stop busStop="274" duration="7.00" />
        	<stop busStop="76" duration="7.00" />
        	<stop busStop="191" duration="7.00" />
        	<stop busStop="331" duration="7.00" />
	</flow>
	<flow id="52" type="bus" begin="21180" end="72180" period="1800">
		<route edges="24982688#3 145069294#0 32201042 32201044#0 32201044#1 32201044#2 233673423 28418763 -379723624#1 -379723624#0 -32923867#4 -32923867#3 -32923867#2 -32923867#1 -32923867#0 130996520 130996520.58 172519650 356952270 54033673#0 54033673#0.28 54033673#2 54033673#3 29458645 29458645.65 29458645.81 37282738 103718186 37282688#2 37282688#4 37282688#5 48742425#0 48742425#1 48742425#2 32881076#0 37282369 354967544#0 354967544#1 354967544#2 4268816#0 4268816#1 -201953160#4 -201953160#1 -140834255#1 201953161#0" />
        	<stop busStop="328" duration="7.00" />
        	<stop busStop="421" duration="7.00" />
        	<stop busStop="394" duration="7.00" />
        	<stop busStop="240" duration="7.00" />
        	<stop busStop="224" duration="7.00" />
        	<stop busStop="115" duration="7.00" />
        	<stop busStop="269" duration="7.00" />
        	<stop busStop="94" duration="7.00" />
	</flow>
	<flow id="S1" type="bus" begin="53280" end="80280" period="27000">
		<route edges="-201894096#3 -10425743 156788416#1 164078531#0 164078531#1 164078531#2 315358247#0 129379923 315358244 164078530 379897806 315358250#0 315358250#1 129379921#0 129379921#1 129379920#0 129379920#1 315358246 129379922 315358252#0 129379918#0 129379925 315358242#0 315358242#1 315358242#2 315358242#3 315358251#1 136436466 386687235 42745545#0 42745545#2 42745545#3 42745545#4 42745545#5 42745545#5.128 42745545#6 28639688#0 28639688#1 28639688#3 116687469#0 248012815#0 248012815#1 30399325 30399322#1.56 30399322#2 30399322#3.66 30399319 -152077572#2 -152077572#1 -29238188#3 -29238188#2 -29238188#0 -137463478#3 -137463478#2 -137463478#1 -137463478#0 25796398#0 31894763#0 137463475#0 116765457#0 116765457#1 28132014#0 28132014#1 42745460 42745461#0 42745461#1 54154922#0 54154922#1 26071515#0 26071515#1 4324820 26471940#0 -164051438#2 -164051438#1 -164051438#0 -164051438#0.46 -164051438#0.62 -26471933 140834262#0 140834255#0 201953160#0 201953160#3 542630099 354967545#0.45 354967545#1 141058765#0 141058765#1 141058765#2 141058765#2.33 31624236#0 172700927#0 -48742425#2 -48742425#1 -48742425#0 23184252#0 23184252#1 201926265#0 201926265#1 201926265#2 201926265#3 201926265#4 201926265#5 -20314044#2 -20314044#1 -20314044#0 -57827563#3 -57827563#2 -57827563#1 -57827563#0 20266195#0 20266195#2 20266195#4 -439871826 -22486112#6 -22486112#5 -22486112#4 -22486112#3 -22486112#2 -22486112#1 -390842191#1 -201286890#12 -201286890#10 -201286890#9 -201286890#8 -201286890#7 -201286890#6 -201286890#5 -201286890#3 -201286890#2 -201286890#1 -201286890#0 -51872702 -41494423#1 -51872706 -51872707 -28124854#0 -51872703 -32881185#1 41494424#0 233673422#0 233673422#2 233673422#4 233673422#5 233673422#7 233673422#9" />
	        <stop busStop="127" duration="7.00" />
	        <stop busStop="75" duration="7.00" />
	        <stop busStop="225" duration="7.00" />
	        <stop busStop="210" duration="7.00" />
	        <stop busStop="227" duration="7.00" />
	        <stop busStop="285" duration="7.00" />
	        <stop busStop="357" duration="7.00" />
	        <stop busStop="223" duration="7.00" />
	        <stop busStop="390" duration="7.00" />
	        <stop busStop="137" duration="7.00" />
	        <stop busStop="139" duration="7.00" />
	        <stop busStop="105" duration="7.00" />
	        <stop busStop="196" duration="7.00" />
	        <stop busStop="99" duration="7.00" />
	        <stop busStop="141" duration="7.00" />
	        <stop busStop="143" duration="7.00" />
	        <stop busStop="253" duration="7.00" />
	</flow>
	<flow id="N19_frequency2" type="bus" begin="75600" end="82800" period="3600">
		<route edges="29238015 29238044 80369244 80369263 29238181 29238182 29238183#0 29238184#0 51856492#0 29027839#0 29027839#2 31343367#0 29048562#0 145069303#0 145069303#1 145069303#2 145069303#4 -26973015 24983010#0 24983010#1 161678033#0 51857519#0 161678034#0 161678034#1 161678034#2 161678034#2.30 161678034#2.46 24970784#0 24977473#0 54154922#0 54154922#1 26071515#0 26071515#1 4324820 26471940#0 -164051438#2 -164051438#1 -164051438#0 -164051438#0.46 -164051438#0.62 -26471933 140834262#0 201953161#0 201953161#7 -115881043#10 -115881043#8 -115881043#7 -115881043#6 -115881043#5 -115881043#4 -115881043#2 -115881043#0 201953160#0 201953160#3 542630099 354967545#0.45 354967545#1 141058765#0 141058765#1 141058765#2 141058765#2.33 31624236#0 172700927#0 -48742425#2 -48742425#1 -48742425#0 23184252#0 23184252#1 201926265#0 201926265#1 201926265#2 201926265#3 201926265#4 201926265#5 -20314044#2 -20314044#1 -20314044#0 -57827563#3 -57827563#2 -57827563#1 -57827563#0 20266195#0 20266195#2 20266195#4 -439871826 -22486112#6 -22486112#5 -22486112#4 -22486112#3 -22486112#2 -22486112#1 -390842191#1 -201286890#12 -201286890#10 -201286890#9 -201286890#8 -201286890#7 -201286890#6 -201286890#5 23206120 203976003#11" />
	        <stop busStop="331" duration="7.00" />
	        <stop busStop="200" duration="7.00" />
	        <stop busStop="269" duration="7.00" />
	        <stop busStop="94" duration="7.00" />
	        <stop busStop="223" duration="7.00" />
	        <stop busStop="390" duration="7.00" />
	        <stop busStop="137" duration="7.00" />
	        <stop busStop="139" duration="7.00" />
	        <stop busStop="105" duration="7.00" />
	        <stop busStop="196" duration="7.00" />
	        <stop busStop="99" duration="7.00" />
	        <stop busStop="141" duration="7.00" />
	        <stop busStop="325" duration="7.00" />
	</flow>
	<flow id="N19R" type="bus" begin="77640" end="84840" period="3600">
    <route edges="203976003#11 201286892#0 201286890#0 201286890#1 201286890#2 201286890#3 201286890#4 201286890#6 201286890#7 201286890#8 201286890#9 201286890#10 201286890#11 390842191#0 22486112#0 22486112#2 22486112#3 22486112#4 22486112#5 22486112#6 439871826 -20266195#4 -20266195#3 -20266195#1 57827563#0 57827563#1 57827563#2 57827563#3 20314044#0 20314044#1 20314044#2 -201926265#6 -201926265#4 -201926265#3 -201926265#2 -201926265#1 -201926265#0 -23184252#1 -23184252#0 48742425#0 48742425#1 48742425#2 32881076#0 37282369 354967544#0 354967544#1 354967544#2 4268816#0 4268816#1 -201953160#4 -201953160#1 -140834255#1 -140834262#1 -26471939#1 -26471938 26471932#0 164051398 203971379#0 203971379#1 -54154922#1 -54154922#0 -24977473#2 -24970784#3 -161678034#2 -161678034#2.33 -161678034#2.50 -161678034#1 -161678034#0 28119593 -24983010#2 -24983010#0 26973015 -145069303#4 -145069303#3 -145069303#1 -145069303#0 -32009683#1 -31343367#1 -29027839#2 -29027839#1 -51856492#2 -29238184#1 -145069300#1 -145069300#1.112 51856495#0 29238013 29238015" />
	        <stop busStop="325" duration="7.00" />
	        <stop busStop="192" duration="7.00" />
	        <stop busStop="193" duration="7.00" />
	        <stop busStop="195" duration="7.00" />
	        <stop busStop="108" duration="7.00" />
	        <stop busStop="197" duration="7.00" />
	        <stop busStop="126" duration="7.00" />
	        <stop busStop="95" duration="7.00" />
	        <stop busStop="240" duration="7.00" />
	        <stop busStop="224" duration="7.00" />
	        <stop busStop="282" duration="7.00" />
	        <stop busStop="191" duration="7.00" />
	        <stop busStop="331" duration="7.00" />
	</flow>
	</routes>