<?xml version='1.0' encoding='utf-8'?>

<routes xmlns:xsi="http://www.w3.org/2001/XMLSchema-instance"
        xsi:noNamespaceSchemaLocation="http://sumo.dlr.de/xsd/routes_file.xsd">

    <person id="26" depart="18360.00">
        <walk edges="115881039 -115881043#4 -115881043#2 -115881043#0 201953160#0 201953160#3 556434727 33279254#1 201956818#2 201956818#5 164051398 25188982#0 -25192758 203971378#0 -37480109 90587320 90587320.64 -201926266 -25380714#1 -25597196#4 -25596855#3 -25596855#1 25596855#0 -25596974#0" />
    </person>
    <person id="106" depart="42480.00">
        <walk edges="140834262#0 -140834262#1 140834255#0 201953160#0 201953160#3 556434727 33279254#1 201956817 164051399 4324820 26071515#1 26071515#0 -54154922#1 -54154922#0 -42745461#1 -42745461#0 -42745460 -28132014#2 -28132014#0 -24978651 -115082348#0 -115082348#2 -115082348#3 -115082348#5 257907858#0 257907859#1 257907859#0 26451152#0 202070427#0 -25796375#0 33280102#2 33280102#1 33280102#0 -33280103#0 33280103#1 -33280103#2 -33280103#3 33280103#4 33280103#4.68 -97304242#1 25626605#0 25626605#1 25626605#2 25626605#4 60064938#0 -28133177#1" />
    </person>
    <person id="107" depart="42840.00">
        <walk edges="-115881050 -115881043#7 -115881043#6 -115881043#5 -115881043#4 -115881043#2 -115881043#0 201953160#0 201953160#3 542630099 354967545#0.45 354967545#1 141058765#0 141058765#1 141058765#2 141058765#2.33 31624236#0 29458647#0 201278216#0 201278214#0 -29458645 -29458645.13 -29458645.28 131118468#0 131118468#0.16 131118468#1 54033673#2 54033673#0.28 54033673#0 200946853 151167768#1 151167768#0 -32923863#1 -32923863#4 -266607804#0 -266607804#1 -266607804#2 -266607803#0 -266607803#1 -266607803#2 -266607792#4 266607792#5 200949176#0 -200949176#1 116765451#0 -116765451#3 -390835794#0 -390835794#2 -266607799 -168249926#0 -168249926#1 29027936#0" />
    </person>
    <person id="145" depart="54600.00">
        <walk edges="4268967#0 -4268967#1 -26471933 -140834262#1 140834255#0 201953160#0 201953160#3 556434727 33279254#1 201956817 164051399 4324820 203971381#1 203971381#0 4324827#0 -164051429#1 -164051429#0 161678034#2.46 161678034#2.30 161678034#2 -161678034#1 161678034#0 28119593 -24983010#2 -24983010#0 -24692391#3 -24692391#1 144659495 32200762#0" />
    </person>
    <person id="207" depart="67500.00">
        <walk edges="201956816#6 -201956816#5 201956816#4 -201956816#3 -201956816#2 201953163#3 201953163#0 -115881043#10 -115881043#8 -115881043#7 -115881043#6 -115881043#5 -115881043#4 -115881043#2 -115881043#0 201953160#0 201953160#3 542630099 354967545#0.45 354967545#1 141058765#0 141058765#1 141058765#2 141058765#2.33 31624236#0 29458647#0 201278216#0 201278214#0 -29458645 -29458645.13 -29458645.28 131118468#0 131118468#0.16 131118468#1 54033673#2 54033673#0.28 54033673#0 356952270 305390333 172515812#0 306086241 61940356 172515808 -24495188 -61940355 201969576#0 -201969576#1 -201969576#4 -201969576#5 -151167738#0 -151167738#1 -151167738#2 -23442105#0 -23442105#1 -23442105#2 -23442105#3 -23442105#4 -38305646#0 -38305646#1 -38305646#2 -38305646#4 26729232#0 -26729232#2 -26372056 201956815#0 -26372058 26372059#0 -26372059#1 26372059#2 -26372657#0 -26372657#1 -26372657#2 26372657#3 -26372657#4 -26372657#5 -26372657#6 -26372657#7" />
    </person>
    </routes>